
FoamFile
{
    version 2.0;
    format ascii;
    class dictionary;
    object blockMeshDict;
}

// Geometry parameters
convertToMeters 1.0;

vertices
(
    (0 0 0)
    (0.724 0 0)
    (0.724 0.724 0)
    (0 0.724 0)
    (0 0 0.724)
    (0.724 0 0.724)
    (0.724 0.724 0.724)
    (0 0.724 0.724)
);

blocks
(
    hex (0 1 2 3 4 5 6 7) (20 20 20) simpleGrading (1 1 1)
);

edges
(
);

boundary
(
    walls
    {
        type wall;
        faces
        (
            (0 1 5 4)
            (1 2 6 5)
            (2 3 7 6)
            (3 0 4 7)
        );
    }
    inlet
    {
        type patch;
        faces
        (
            (0 1 2 3)
        );
    }
    outlet
    {
        type patch;
        faces
        (
            (4 5 6 7)
        );
    }
);

mergePatchPairs
(
);
